#======================================================================

# CRYSTAL DATA

#----------------------------------------------------------------------

data_VESTA_phase_1


_chemical_name_common                  'image0'
_cell_length_a                         3.79160
_cell_length_b                         9.82000
_cell_length_c                         9.82070
_cell_angle_alpha                      90
_cell_angle_beta                       90
_cell_angle_gamma                      90
_space_group_name_H-M_alt              'P 1'
_space_group_IT_number                 1

loop_
_space_group_symop_operation_xyz
   'x, y, z'

loop_
   _atom_site_label
   _atom_site_occupancy
   _atom_site_fract_x
   _atom_site_fract_y
   _atom_site_fract_z
   _atom_site_adp_type
   _atom_site_B_iso_or_equiv
   _atom_site_type_symbol
   Ir1        1.0     0.000000      0.164360      0.300990     Biso  1.000000 Ir
   Ir2        1.0     0.000000      0.835640      0.300990     Biso  1.000000 Ir
   Ir3        1.0     0.000000      0.164400      0.698990     Biso  1.000000 Ir
   Ir4        1.0     0.000000      0.835600      0.698990     Biso  1.000000 Ir
   Ir5        1.0     0.500000      0.301080      0.664350     Biso  1.000000 Ir
   Ir6        1.0     0.500000      0.698920      0.664350     Biso  1.000000 Ir
   Ir7        1.0     0.500000      0.301050      0.335640     Biso  1.000000 Ir
   Ir8        1.0     0.500000      0.698950      0.335640     Biso  1.000000 Ir
   Ir9        1.0     0.000000      0.000000      0.999970     Biso  1.000000 Ir
   Ir10       1.0     0.500000      0.000000      0.500020     Biso  1.000000 Ir
   Ir11       1.0     0.000000      0.664360      0.800990     Biso  1.000000 Ir
   Ir12       1.0     0.000000      0.335640      0.800990     Biso  1.000000 Ir
   Ir13       1.0     0.000000      0.664400      0.198990     Biso  1.000000 Ir
   Ir14       1.0     0.000000      0.335600      0.198990     Biso  1.000000 Ir
   Ir15       1.0     0.500000      0.801080      0.164350     Biso  1.000000 Ir
   Ir16       1.0     0.500000      0.198920      0.164350     Biso  1.000000 Ir
   Ir17       1.0     0.500000      0.801050      0.835640     Biso  1.000000 Ir
   Ir18       1.0     0.500000      0.198950      0.835640     Biso  1.000000 Ir
   Ir19       1.0     0.000000      0.500000      0.499970     Biso  1.000000 Ir
   Ir20       1.0     0.500000      0.500000      0.000020     Biso  1.000000 Ir
   O1         1.0     0.248310      0.000000      0.188770     Biso  1.000000 O
   O2         1.0     0.751690      0.000000      0.188770     Biso  1.000000 O
   O3         1.0     0.500000      0.100380      0.662510     Biso  1.000000 O
   O4         1.0     0.500000      0.899620      0.662510     Biso  1.000000 O
   O5         1.0     0.500000      0.100360      0.337510     Biso  1.000000 O
   O6         1.0     0.500000      0.899640      0.337510     Biso  1.000000 O
   O7         1.0     0.000000      0.337490      0.399620     Biso  1.000000 O
   O8         1.0     0.000000      0.662510      0.399620     Biso  1.000000 O
   O9         1.0     0.748280      0.811190      0.500000     Biso  1.000000 O
   O10        1.0     0.251720      0.188810      0.500000     Biso  1.000000 O
   O11        1.0     0.748280      0.188810      0.500000     Biso  1.000000 O
   O12        1.0     0.251720      0.811190      0.500000     Biso  1.000000 O
   O13        1.0     0.500000      0.402690      0.499980     Biso  1.000000 O
   O14        1.0     0.500000      0.597310      0.499980     Biso  1.000000 O
   O15        1.0     0.000000      0.662490      0.600330     Biso  1.000000 O
   O16        1.0     0.000000      0.337510      0.600330     Biso  1.000000 O
   O17        1.0     0.000000      0.000000      0.597340     Biso  1.000000 O
   O18        1.0     0.751700      0.000000      0.811200     Biso  1.000000 O
   O19        1.0     0.248290      0.000000      0.811200     Biso  1.000000 O
   O20        1.0     0.000000      0.000000      0.402700     Biso  1.000000 O
   O21        1.0     0.248310      0.500000      0.688770     Biso  1.000000 O
   O22        1.0     0.751690      0.500000      0.688770     Biso  1.000000 O
   O23        1.0     0.500000      0.600380      0.162510     Biso  1.000000 O
   O24        1.0     0.500000      0.399620      0.162510     Biso  1.000000 O
   O25        1.0     0.500000      0.600360      0.837510     Biso  1.000000 O
   O26        1.0     0.500000      0.399640      0.837510     Biso  1.000000 O
   O27        1.0     0.000000      0.837490      0.899620     Biso  1.000000 O
   O28        1.0     0.000000      0.162510      0.899620     Biso  1.000000 O
   O29        1.0     0.748280      0.311190      0.000000     Biso  1.000000 O
   O30        1.0     0.251720      0.688810      0.000000     Biso  1.000000 O
   O31        1.0     0.748280      0.688810      0.000000     Biso  1.000000 O
   O32        1.0     0.251720      0.311190      0.000000     Biso  1.000000 O
   O33        1.0     0.500000      0.902690      0.999980     Biso  1.000000 O
   O34        1.0     0.500000      0.097310      0.999980     Biso  1.000000 O
   O35        1.0     0.000000      0.162490      0.100330     Biso  1.000000 O
   O36        1.0     0.000000      0.837510      0.100330     Biso  1.000000 O
   O37        1.0     0.000000      0.500000      0.097340     Biso  1.000000 O
   O38        1.0     0.751700      0.500000      0.311200     Biso  1.000000 O
   O39        1.0     0.248290      0.500000      0.311200     Biso  1.000000 O
   O40        1.0     0.000000      0.500000      0.902700     Biso  1.000000 O
