#======================================================================

# CRYSTAL DATA

#----------------------------------------------------------------------

data_VESTA_phase_1


_chemical_name_common                  'image0'
_cell_length_a                         4.81070
_cell_length_b                         2.77750
_cell_length_c                         30.39030
_cell_angle_alpha                      90
_cell_angle_beta                       90.09460
_cell_angle_gamma                      90
_space_group_name_H-M_alt              'P 1'
_space_group_IT_number                 1

loop_
_space_group_symop_operation_xyz
   'x, y, z'

loop_
   _atom_site_label
   _atom_site_occupancy
   _atom_site_fract_x
   _atom_site_fract_y
   _atom_site_fract_z
   _atom_site_adp_type
   _atom_site_B_iso_or_equiv
   _atom_site_type_symbol
   O1         1.0     0.500000      0.500000      0.999000     Biso  1.000000 O
   O2         1.0     0.333330      0.000000      0.925010     Biso  1.000000 O
   O3         1.0     0.500000      0.500000      0.856030     Biso  1.000000 O
   O4         1.0     0.333320      0.000000      0.782070     Biso  1.000000 O
   O5         1.0     0.500000      0.500000      0.713220     Biso  1.000000 O
   O6         1.0     0.333310      0.000000      0.639410     Biso  1.000000 O
   O7         1.0     0.500000      0.500000      0.570620     Biso  1.000000 O
   O8         1.0     0.333320      0.000000      0.496810     Biso  1.000000 O
   O9         1.0     0.500000      0.500000      0.427920     Biso  1.000000 O
   O10        1.0     0.333330      0.000000      0.353960     Biso  1.000000 O
   O11        1.0     0.500000      0.500000      0.284970     Biso  1.000000 O
   O12        1.0     0.333330      0.000000      0.210970     Biso  1.000000 O
   O13        1.0     0.166670      0.500000      0.142000     Biso  1.000000 O
   O14        1.0     0.333320      0.000000      0.068020     Biso  1.000000 O
   O15        1.0     1.000000      0.000000      0.999000     Biso  1.000000 O
   O16        1.0     0.833330      0.500000      0.925010     Biso  1.000000 O
   O17        1.0     1.000000      0.000000      0.856030     Biso  1.000000 O
   O18        1.0     0.833320      0.500000      0.782070     Biso  1.000000 O
   O19        1.0     1.000000      0.000000      0.713220     Biso  1.000000 O
   O20        1.0     0.833320      0.500000      0.639410     Biso  1.000000 O
   O21        1.0     1.000000      0.000000      0.570620     Biso  1.000000 O
   O22        1.0     0.833320      0.500000      0.496810     Biso  1.000000 O
   O23        1.0     1.000000      0.000000      0.427920     Biso  1.000000 O
   O24        1.0     0.833330      0.500000      0.353960     Biso  1.000000 O
   O25        1.0     1.000000      0.000000      0.284970     Biso  1.000000 O
   O26        1.0     0.833330      0.500000      0.210970     Biso  1.000000 O
   O27        1.0     0.666670      0.000000      0.142000     Biso  1.000000 O
   O28        1.0     0.833320      0.500000      0.068020     Biso  1.000000 O
   Ir1        1.0     0.166680      0.500000      0.962030     Biso  1.000000 Ir
   Ir2        1.0     0.166670      0.500000      0.819030     Biso  1.000000 Ir
   Ir3        1.0     0.166660      0.500000      0.676310     Biso  1.000000 Ir
   Ir4        1.0     0.166660      0.500000      0.533730     Biso  1.000000 Ir
   Ir5        1.0     0.166670      0.500000      0.390930     Biso  1.000000 Ir
   Ir6        1.0     0.166670      0.500000      0.247920     Biso  1.000000 Ir
   Ir7        1.0     0.500000      0.500000      0.105020     Biso  1.000000 Ir
   Ir8        1.0     0.666680      0.000000      0.962030     Biso  1.000000 Ir
   Ir9        1.0     0.666670      0.000000      0.819030     Biso  1.000000 Ir
   Ir10       1.0     0.666660      0.000000      0.676310     Biso  1.000000 Ir
   Ir11       1.0     0.666660      0.000000      0.533730     Biso  1.000000 Ir
   Ir12       1.0     0.666670      0.000000      0.390930     Biso  1.000000 Ir
   Ir13       1.0     0.666670      0.000000      0.247920     Biso  1.000000 Ir
   Ir14       1.0     1.000000      0.000000      0.105020     Biso  1.000000 Ir
