#======================================================================

# CRYSTAL DATA

#----------------------------------------------------------------------

data_VESTA_phase_1


_chemical_name_common                  'image0'
_cell_length_a                         4.63950
_cell_length_b                         4.69460
_cell_length_c                         9.19050
_cell_angle_alpha                      90
_cell_angle_beta                       90
_cell_angle_gamma                      90
_space_group_name_H-M_alt              'P 1'
_space_group_IT_number                 1

loop_
_space_group_symop_operation_xyz
   'x, y, z'

loop_
   _atom_site_label
   _atom_site_occupancy
   _atom_site_fract_x
   _atom_site_fract_y
   _atom_site_fract_z
   _atom_site_adp_type
   _atom_site_B_iso_or_equiv
   _atom_site_type_symbol
   O1         1.0     0.362120      0.689850      0.568400     Biso  1.000000 O
   O2         1.0     0.137880      0.310150      0.068400     Biso  1.000000 O
   O3         1.0     0.637880      0.189850      0.931600     Biso  1.000000 O
   O4         1.0     0.862120      0.810150      0.431600     Biso  1.000000 O
   O5         1.0     0.637880      0.310150      0.431600     Biso  1.000000 O
   O6         1.0     0.862120      0.689850      0.931600     Biso  1.000000 O
   O7         1.0     0.362120      0.810150      0.068400     Biso  1.000000 O
   O8         1.0     0.137880      0.189850      0.568400     Biso  1.000000 O
   O9         1.0     0.619800      0.947240      0.681370     Biso  1.000000 O
   O10        1.0     0.880200      0.052760      0.181370     Biso  1.000000 O
   O11        1.0     0.380200      0.447240      0.818630     Biso  1.000000 O
   O12        1.0     0.119800      0.552760      0.318630     Biso  1.000000 O
   O13        1.0     0.380200      0.052760      0.318630     Biso  1.000000 O
   O14        1.0     0.119800      0.947240      0.818630     Biso  1.000000 O
   O15        1.0     0.619800      0.552760      0.181370     Biso  1.000000 O
   O16        1.0     0.880200      0.447240      0.681370     Biso  1.000000 O
   Ir1        1.0     0.994790      0.825860      0.628540     Biso  1.000000 Ir
   Ir2        1.0     0.505210      0.174140      0.128540     Biso  1.000000 Ir
   Ir3        1.0     0.005210      0.325860      0.871460     Biso  1.000000 Ir
   Ir4        1.0     0.494790      0.674140      0.371460     Biso  1.000000 Ir
   Ir5        1.0     0.005210      0.174140      0.371460     Biso  1.000000 Ir
   Ir6        1.0     0.494790      0.825860      0.871460     Biso  1.000000 Ir
   Ir7        1.0     0.994790      0.674140      0.128540     Biso  1.000000 Ir
   Ir8        1.0     0.505210      0.325860      0.628540     Biso  1.000000 Ir
