#======================================================================

# CRYSTAL DATA

#----------------------------------------------------------------------

data_VESTA_phase_1


_chemical_name_common                  ''
_cell_length_a                         7.09376
_cell_length_b                         7.09376
_cell_length_c                         35.46880
_cell_angle_alpha                      87.00067
_cell_angle_beta                       87.00067
_cell_angle_gamma                      87.00068
_space_group_name_H-M_alt              'P 1'
_space_group_IT_number                 1

loop_
_space_group_symop_operation_xyz
   'x, y, z'
   'x+1/2, y+1/2, z'

loop_
   _atom_site_label
   _atom_site_occupancy
   _atom_site_fract_x
   _atom_site_fract_y
   _atom_site_fract_z
   _atom_site_adp_type
   _atom_site_B_iso_or_equiv
   _atom_site_type_symbol
   Ir1        1.0     0.293210      0.793210      0.267280     Biso  1.000000 Ir
   Ir2        1.0     0.293210      0.293210      0.367280     Biso  1.000000 Ir
   Ir3        1.0     0.293210      0.793210      0.367280     Biso  1.000000 Ir
   Ir4        1.0     0.293210      0.293210      0.267280     Biso  1.000000 Ir
   Ir5        1.0     0.293210      0.793210      0.467280     Biso  1.000000 Ir
   Ir6        1.0     0.293210      0.293210      0.567280     Biso  1.000000 Ir
   Ir7        1.0     0.293210      0.793210      0.567280     Biso  1.000000 Ir
   Ir8        1.0     0.293210      0.293210      0.467280     Biso  1.000000 Ir
   Ir9        1.0     0.293210      0.793210      0.667280     Biso  1.000000 Ir
   Ir10       1.0     0.293210      0.293210      0.767280     Biso  1.000000 Ir
   Ir11       1.0     0.293210      0.793210      0.767280     Biso  1.000000 Ir
   Ir12       1.0     0.293210      0.293210      0.667280     Biso  1.000000 Ir
   O1         1.0     0.216055      0.870365      0.217280     Biso  1.000000 O
   O2         1.0     0.716055      0.870365      0.317280     Biso  1.000000 O
   O3         1.0     0.716065      0.043215      0.382710     Biso  1.000000 O
   O4         1.0     0.216070      0.043210      0.282710     Biso  1.000000 O
   O5         1.0     0.870365      0.043215      0.251850     Biso  1.000000 O
   O6         1.0     0.370365      0.043215      0.351850     Biso  1.000000 O
   O7         1.0     0.370355      0.216065      0.217280     Biso  1.000000 O
   O8         1.0     0.370355      0.716065      0.317280     Biso  1.000000 O
   O9         1.0     0.543210      0.216060      0.282720     Biso  1.000000 O
   O10        1.0     0.543210      0.716060      0.382720     Biso  1.000000 O
   O11        1.0     0.543215      0.870355      0.251860     Biso  1.000000 O
   O12        1.0     0.543215      0.370355      0.351860     Biso  1.000000 O
   O13        1.0     0.216055      0.870365      0.417280     Biso  1.000000 O
   O14        1.0     0.716055      0.870365      0.517280     Biso  1.000000 O
   O15        1.0     0.716065      0.043215      0.582710     Biso  1.000000 O
   O16        1.0     0.216070      0.043210      0.482710     Biso  1.000000 O
   O17        1.0     0.870365      0.043215      0.451850     Biso  1.000000 O
   O18        1.0     0.370365      0.043215      0.551850     Biso  1.000000 O
   O19        1.0     0.370355      0.216065      0.417280     Biso  1.000000 O
   O20        1.0     0.370355      0.716065      0.517280     Biso  1.000000 O
   O21        1.0     0.543210      0.216060      0.482720     Biso  1.000000 O
   O22        1.0     0.543210      0.716060      0.582720     Biso  1.000000 O
   O23        1.0     0.543210      0.870360      0.451860     Biso  1.000000 O
   O24        1.0     0.543215      0.370355      0.551860     Biso  1.000000 O
   O25        1.0     0.216055      0.870365      0.617280     Biso  1.000000 O
   O26        1.0     0.716055      0.870365      0.717280     Biso  1.000000 O
   O27        1.0     0.716070      0.043210      0.782710     Biso  1.000000 O
   O28        1.0     0.216070      0.043210      0.682710     Biso  1.000000 O
   O29        1.0     0.870370      0.043210      0.651850     Biso  1.000000 O
   O30        1.0     0.370365      0.043215      0.751850     Biso  1.000000 O
   O31        1.0     0.370355      0.216065      0.617280     Biso  1.000000 O
   O32        1.0     0.370355      0.716065      0.717280     Biso  1.000000 O
   O33        1.0     0.543215      0.216055      0.682720     Biso  1.000000 O
   O34        1.0     0.543215      0.716055      0.782720     Biso  1.000000 O
   O35        1.0     0.543215      0.870355      0.651860     Biso  1.000000 O
   O36        1.0     0.543215      0.370355      0.751860     Biso  1.000000 O
