#======================================================================

# CRYSTAL DATA

#----------------------------------------------------------------------

data_VESTA_phase_1


_chemical_name_common                  ''
_cell_length_a                         8.45769
_cell_length_b                         4.88305
_cell_length_c                         38.74090
_cell_angle_alpha                      90
_cell_angle_beta                       90
_cell_angle_gamma                      90
_space_group_name_H-M_alt              'P 1'
_space_group_IT_number                 1

loop_
_space_group_symop_operation_xyz
   'x, y, z'
   'x+1/2, y+1/2, z'

loop_
   _atom_site_label
   _atom_site_occupancy
   _atom_site_fract_x
   _atom_site_fract_y
   _atom_site_fract_z
   _atom_site_adp_type
   _atom_site_B_iso_or_equiv
   _atom_site_type_symbol
   Ir1        1.0     0.666670      0.000000      0.375000     Biso  1.000000 Ir
   Ir2        1.0     0.000000      0.000000      0.263890     Biso  1.000000 Ir
   Ir3        1.0     0.333330      0.000000      0.486110     Biso  1.000000 Ir
   Ir4        1.0     0.666670      0.000000      0.208330     Biso  1.000000 Ir
   Ir5        1.0     0.500000      0.500000      0.430560     Biso  1.000000 Ir
   Ir6        1.0     0.333330      0.000000      0.319440     Biso  1.000000 Ir
   Ir7        1.0     0.666670      0.000000      0.708330     Biso  1.000000 Ir
   Ir8        1.0     0.500000      0.500000      0.597220     Biso  1.000000 Ir
   Ir9        1.0     0.333330      0.000000      0.819440     Biso  1.000000 Ir
   Ir10       1.0     0.666670      0.000000      0.541670     Biso  1.000000 Ir
   Ir11       1.0     0.500000      0.500000      0.763890     Biso  1.000000 Ir
   Ir12       1.0     0.333330      0.000000      0.652780     Biso  1.000000 Ir
   O1         1.0     0.660485      0.327155      0.402780     Biso  1.000000 O
   O2         1.0     0.493825      0.827155      0.291670     Biso  1.000000 O
   O3         1.0     0.327155      0.327155      0.180560     Biso  1.000000 O
   O4         1.0     0.493815      0.172855      0.458330     Biso  1.000000 O
   O5         1.0     0.327145      0.672855      0.347220     Biso  1.000000 O
   O6         1.0     0.660475      0.672855      0.236110     Biso  1.000000 O
   O7         1.0     0.506175      0.827155      0.402780     Biso  1.000000 O
   O8         1.0     0.339515      0.327155      0.291670     Biso  1.000000 O
   O9         1.0     0.172845      0.827155      0.180560     Biso  1.000000 O
   O10        1.0     0.339525      0.672855      0.458330     Biso  1.000000 O
   O11        1.0     0.172855      0.172855      0.347220     Biso  1.000000 O
   O12        1.0     0.506185      0.172855      0.236110     Biso  1.000000 O
   O13        1.0     0.833330      0.845690      0.402780     Biso  1.000000 O
   O14        1.0     0.166670      0.845690      0.291670     Biso  1.000000 O
   O15        1.0     0.500000      0.845690      0.180560     Biso  1.000000 O
   O16        1.0     0.166670      0.154290      0.458330     Biso  1.000000 O
   O17        1.0     0.500000      0.154290      0.347220     Biso  1.000000 O
   O18        1.0     0.833330      0.154290      0.236110     Biso  1.000000 O
   O19        1.0     0.660485      0.327155      0.736110     Biso  1.000000 O
   O20        1.0     0.493825      0.827155      0.625000     Biso  1.000000 O
   O21        1.0     0.327155      0.327155      0.513890     Biso  1.000000 O
   O22        1.0     0.493815      0.172855      0.791670     Biso  1.000000 O
   O23        1.0     0.827145      0.172855      0.680560     Biso  1.000000 O
   O24        1.0     0.660475      0.672855      0.569440     Biso  1.000000 O
   O25        1.0     0.506175      0.827155      0.736110     Biso  1.000000 O
   O26        1.0     0.339515      0.327155      0.625000     Biso  1.000000 O
   O27        1.0     0.172845      0.827155      0.513890     Biso  1.000000 O
   O28        1.0     0.339525      0.672855      0.791670     Biso  1.000000 O
   O29        1.0     0.172855      0.172855      0.680560     Biso  1.000000 O
   O30        1.0     0.506185      0.172855      0.569440     Biso  1.000000 O
   O31        1.0     0.833330      0.845690      0.736110     Biso  1.000000 O
   O32        1.0     0.166670      0.845690      0.625000     Biso  1.000000 O
   O33        1.0     0.500000      0.845690      0.513890     Biso  1.000000 O
   O34        1.0     0.166670      0.154290      0.791670     Biso  1.000000 O
   O35        1.0     0.500000      0.154290      0.680560     Biso  1.000000 O
   O36        1.0     0.833330      0.154290      0.569440     Biso  1.000000 O
