#======================================================================

# CRYSTAL DATA

#----------------------------------------------------------------------

data_VESTA_phase_1


_chemical_name_common                  'image0'
_cell_length_a                         6.00000
_cell_length_b                         6.00000
_cell_length_c                         6.00000
_cell_angle_alpha                      90
_cell_angle_beta                       90
_cell_angle_gamma                      120
_space_group_name_H-M_alt              'P 1'
_space_group_IT_number                 1

loop_
_space_group_symop_operation_xyz
   'x, y, z'

loop_
   _atom_site_label
   _atom_site_occupancy
   _atom_site_fract_x
   _atom_site_fract_y
   _atom_site_fract_z
   _atom_site_adp_type
   _atom_site_B_iso_or_equiv
   _atom_site_type_symbol
   O1         1.0     0.691180      0.666460      0.930060     Biso  1.000000 O
   O2         1.0     0.333540      0.024730      0.930060     Biso  1.000000 O
   O3         1.0     0.975270      0.308820      0.930060     Biso  1.000000 O
   O4         1.0     0.333120      0.307770      0.070240     Biso  1.000000 O
   O5         1.0     0.692230      0.025350      0.070240     Biso  1.000000 O
   O6         1.0     0.974650      0.666880      0.070240     Biso  1.000000 O
   O7         1.0     0.640310      0.640630      0.261630     Biso  1.000000 O
   O8         1.0     0.359370      0.999680      0.261630     Biso  1.000000 O
   O9         1.0     0.000320      0.359690      0.261630     Biso  1.000000 O
   O10        1.0     0.358530      0.358220      0.402050     Biso  1.000000 O
   O11        1.0     0.641780      0.000310      0.402050     Biso  1.000000 O
   O12        1.0     0.999690      0.641470      0.402050     Biso  1.000000 O
   O13        1.0     0.666830      0.691330      0.597820     Biso  1.000000 O
   O14        1.0     0.308670      0.975490      0.597820     Biso  1.000000 O
   O15        1.0     0.024510      0.333170      0.597820     Biso  1.000000 O
   O16        1.0     0.306260      0.333510      0.738290     Biso  1.000000 O
   O17        1.0     0.666490      0.972760      0.738290     Biso  1.000000 O
   O18        1.0     0.027240      0.693740      0.738290     Biso  1.000000 O
   Ir1        1.0     0.000000      0.000000      1.000000     Biso  1.000000 Ir
   Ir2        1.0     0.000000      0.000000      0.667940     Biso  1.000000 Ir
   Ir3        1.0     0.666670      0.333330      0.331760     Biso  1.000000 Ir
   Ir4        1.0     0.666670      0.333330      0.000150     Biso  1.000000 Ir
   Ir5        1.0     0.333330      0.666670      0.667830     Biso  1.000000 Ir
   Ir6        1.0     0.333330      0.666670      0.332060     Biso  1.000000 Ir
