#======================================================================

# CRYSTAL DATA

#----------------------------------------------------------------------

data_VESTA_phase_1


_chemical_name_common                  'Auto-generated '
_cell_length_a                         5.00000
_cell_length_b                         5.00000
_cell_length_c                         3.54000
_cell_angle_alpha                      90
_cell_angle_beta                       90
_cell_angle_gamma                      120.00002
_space_group_name_H-M_alt              'P 1'
_space_group_IT_number                 1

loop_
_space_group_symop_operation_xyz
   'x, y, z'

loop_
   _atom_site_label
   _atom_site_occupancy
   _atom_site_fract_x
   _atom_site_fract_y
   _atom_site_fract_z
   _atom_site_adp_type
   _atom_site_B_iso_or_equiv
   _atom_site_type_symbol
   In1        1.0     0.333333      0.666667      0.250000     Biso  1.000000 Ir
   In2        1.0     0.666667      0.333333      0.750000     Biso  1.000000 Ir
   Pm1        1.0     0.825659      0.651317      0.250000     Biso  1.000000 O
   Pm2        1.0     0.348683      0.174341      0.250000     Biso  1.000000 O
   Pm3        1.0     0.825659      0.174341      0.250000     Biso  1.000000 O
   Pm4        1.0     0.174341      0.348683      0.750000     Biso  1.000000 O
   Pm5        1.0     0.651317      0.825659      0.750000     Biso  1.000000 O
   Pm6        1.0     0.174341      0.825659      0.750000     Biso  1.000000 O
   Pm7        1.0     0.825678      0.651356      0.250000     Biso  1.000000 O
   Pm8        1.0     0.348644      0.174322      0.250000     Biso  1.000000 O
   Pm9        1.0     0.825678      0.174322      0.250000     Biso  1.000000 O
   Pm10       1.0     0.174322      0.348644      0.750000     Biso  1.000000 O
   Pm11       1.0     0.651356      0.825678      0.750000     Biso  1.000000 O
   Pm12       1.0     0.174322      0.825678      0.750000     Biso  1.000000 O
