#======================================================================

# CRYSTAL DATA

#----------------------------------------------------------------------

data_VESTA_phase_1


_chemical_name_common                  ''
_cell_length_a                         8.61194
_cell_length_b                         5.14560
_cell_length_c                         35.47420
_cell_angle_alpha                      90
_cell_angle_beta                       90
_cell_angle_gamma                      93.40640
_space_group_name_H-M_alt              'P 1'
_space_group_IT_number                 1

loop_
_space_group_symop_operation_xyz
   'x, y, z'
   'x+1/2, y+1/2, z'

loop_
   _atom_site_label
   _atom_site_occupancy
   _atom_site_fract_x
   _atom_site_fract_y
   _atom_site_fract_z
   _atom_site_adp_type
   _atom_site_B_iso_or_equiv
   _atom_site_type_symbol
   O1         1.0     0.890570      0.982630      0.225520     Biso  1.000000 O
   Ir1        1.0     0.109690      0.979560      0.236360     Biso  1.000000 Ir
   O2         1.0     0.328815      0.976485      0.247200     Biso  1.000000 O
   O3         1.0     0.606170      0.798680      0.264680     Biso  1.000000 O
   O4         1.0     0.556395      0.293745      0.282160     Biso  1.000000 O
   Ir2        1.0     0.448365      0.963515      0.293000     Biso  1.000000 Ir
   O5         1.0     0.840340      0.133300      0.303850     Biso  1.000000 O
   O6         1.0     0.290550      0.128340      0.321330     Biso  1.000000 O
   O7         1.0     0.567925      0.950545      0.338810     Biso  1.000000 O
   Ir3        1.0     0.787050      0.947470      0.349650     Biso  1.000000 Ir
   O8         1.0     0.506175      0.444405      0.360490     Biso  1.000000 O
   O9         1.0     0.283535      0.766595      0.377970     Biso  1.000000 O
   O10        1.0     0.733755      0.761655      0.395450     Biso  1.000000 O
   Ir4        1.0     0.125730      0.931430      0.406290     Biso  1.000000 Ir
   O11        1.0     0.517705      0.101215      0.417140     Biso  1.000000 O
   O12        1.0     0.467915      0.596255      0.434620     Biso  1.000000 O
   O13        1.0     0.245290      0.918460      0.452100     Biso  1.000000 O
   Ir5        1.0     0.464410      0.915390      0.462940     Biso  1.000000 Ir
   O14        1.0     0.683540      0.912320      0.473780     Biso  1.000000 O
   O15        1.0     0.460895      0.234515      0.491260     Biso  1.000000 O
   O16        1.0     0.411120      0.729570      0.508740     Biso  1.000000 O
   Ir6        1.0     0.803095      0.899345      0.519580     Biso  1.000000 Ir
   O17        1.0     0.195070      0.069130      0.530430     Biso  1.000000 O
   O18        1.0     0.645280      0.064170      0.547900     Biso  1.000000 O
   O19        1.0     0.422655      0.386375      0.565380     Biso  1.000000 O
   Ir7        1.0     0.141775      0.883305      0.576230     Biso  1.000000 Ir
   O20        1.0     0.360900      0.880230      0.587070     Biso  1.000000 O
   O21        1.0     0.638255      0.702425      0.604550     Biso  1.000000 O
   O22        1.0     0.588480      0.197490      0.622030     Biso  1.000000 O
   Ir8        1.0     0.480450      0.867260      0.632870     Biso  1.000000 Ir
   O23        1.0     0.872425      0.037045      0.643710     Biso  1.000000 O
   O24        1.0     0.322635      0.032085      0.661190     Biso  1.000000 O
   O25        1.0     0.600010      0.854290      0.678670     Biso  1.000000 O
   Ir9        1.0     0.819135      0.851215      0.689520     Biso  1.000000 Ir
   O26        1.0     0.538260      0.348150      0.700360     Biso  1.000000 O
   O27        1.0     0.815620      0.170340      0.717840     Biso  1.000000 O
   O28        1.0     0.265840      0.165400      0.735320     Biso  1.000000 O
   Ir10       1.0     0.657815      0.335175      0.746160     Biso  1.000000 Ir
   O29        1.0     0.549790      0.004960      0.757000     Biso  1.000000 O
   O30        1.0     0.000000      0.000000      0.774480     Biso  1.000000 O
